Version 4
SHEET 1 1448 680
WIRE 1072 96 1024 96
WIRE 160 128 -32 128
WIRE 320 128 240 128
WIRE 432 128 384 128
WIRE 592 128 432 128
WIRE 720 144 656 144
WIRE 768 144 720 144
WIRE 864 144 832 144
WIRE 1024 144 1024 96
WIRE 1024 144 944 144
WIRE 432 160 432 128
WIRE 592 160 544 160
WIRE 1024 160 1024 144
WIRE -32 176 -32 128
WIRE 544 240 544 160
WIRE 592 240 544 240
WIRE 720 240 720 144
WIRE 720 240 672 240
WIRE 432 256 432 240
WIRE 544 256 544 240
WIRE 1024 272 1024 240
WIRE -32 304 -32 256
WIRE 544 352 544 336
FLAG 1072 96 vo
IOPIN 1072 96 Out
FLAG -32 304 0
FLAG 432 256 0
FLAG 1024 272 0
FLAG 544 352 0
SYMBOL cap 384 112 R90
WINDOW 0 0 32 VBottom 2
WINDOW 3 32 32 VTop 2
SYMATTR InstName C1
SYMATTR Value 0.0246
SYMBOL ind 256 112 R90
WINDOW 0 5 56 VBottom 2
WINDOW 3 32 56 VTop 2
SYMATTR InstName L1
SYMATTR Value 20.96
SYMATTR SpiceLine Rser=0
SYMBOL voltage -32 160 R0
SYMATTR InstName V1
SYMATTR Value AC 1 0
SYMBOL res 416 144 R0
SYMATTR InstName R2
SYMATTR Value 1
SYMBOL cap 832 128 R90
WINDOW 0 0 32 VBottom 2
WINDOW 3 32 32 VTop 2
SYMATTR InstName C2
SYMATTR Value 0.02238
SYMBOL ind 960 128 R90
WINDOW 0 5 56 VBottom 2
WINDOW 3 32 56 VTop 2
SYMATTR InstName L2
SYMATTR Value 19.077
SYMBOL res 1008 144 R0
SYMATTR InstName R1
SYMATTR Value 1
SYMBOL OpAmps\\opamp 624 208 M180
SYMATTR InstName U1
SYMBOL res 528 240 R0
SYMATTR InstName R3
SYMATTR Value 1
SYMBOL res 688 224 R90
WINDOW 0 0 56 VBottom 2
WINDOW 3 32 56 VTop 2
SYMATTR InstName R4
SYMATTR Value 4.76
TEXT 88 288 Left 2 !.ac dec 1000 0.01 100
TEXT 88 312 Left 2 !.lib opamp.sub
